
OS:Version,
  {4ba6cb2a-c2ec-45e3-9e41-06fca4a4a102}, !- Handle
  3.10.0;                                 !- Version Identifier

OS:Site,
  {f5d18872-60f6-4995-8a62-e4571d3b1a23}, !- Handle
  Ottawa Intl AP,                         !- Name
  45.32,                                  !- Latitude {deg}
  45.32,                                  !- Longitude {deg}
  -5,                                     !- Time Zone {hr}
  114.9,                                  !- Elevation {m}
  ,                                       !- Terrain
  No;                                     !- Keep Site Location Information

OS:YearDescription,
  {9ea78e7f-d38c-4490-b94d-8773802c3fed}, !- Handle
  ,                                       !- Calendar Year
  Sunday;                                 !- Day of Week for Start Day

OS:ClimateZones,
  {4fcfac35-11b2-4426-ad78-3d003bf85ea8}, !- Handle
  ASHRAE,                                 !- Climate Zone Institution Name 1
  ANSI/ASHRAE Standard 169,               !- Climate Zone Document Name 1
  2006,                                   !- Climate Zone Document Year 1
  ,                                       !- Climate Zone Value 1
  CEC,                                    !- Climate Zone Institution Name 2
  California Climate Zone Descriptions,   !- Climate Zone Document Name 2
  1995,                                   !- Climate Zone Document Year 2
  ;                                       !- Climate Zone Value 2

OS:Building,
  {962a9ab1-4024-413c-9a22-d8b88747bdd8}, !- Handle
  Building 1,                             !- Name
  ,                                       !- Building Sector Type
  -0,                                     !- North Axis {deg}
  ,                                       !- Nominal Floor to Floor Height {m}
  {b680222a-5829-40b2-aff1-d579904c4e77}, !- Space Type Name
  {869c50d4-e109-4dcb-8f16-11e4b4abf4a2}, !- Default Construction Set Name
  {412c1bd0-5753-48ab-88e4-fea6710a8053}; !- Default Schedule Set Name

OS:Facility,
  {b318868a-9a8a-46c9-8f0e-bb12da64dc0e}; !- Handle

OS:SimulationControl,
  {52a5241a-176b-46f0-81a9-f50fbd4e0997}; !- Handle

OS:Sizing:Parameters,
  {21d635fd-7975-44ef-8f4f-eecca500537d}, !- Handle
  1.25,                                   !- Heating Sizing Factor
  1.15;                                   !- Cooling Sizing Factor

OS:Timestep,
  {2f197be5-5706-4488-a85f-a651352aaf5f}, !- Handle
  6;                                      !- Number of Timesteps per Hour

OS:ShadowCalculation,
  {33e78f6f-76cc-48f8-8f59-b787f2104103}, !- Handle
  PolygonClipping,                        !- Shading Calculation Method
  ,                                       !- Shading Calculation Update Frequency Method
  20,                                     !- Shading Calculation Update Frequency
  15000,                                  !- Maximum Figures in Shadow Overlap Calculations
  ,                                       !- Polygon Clipping Algorithm
  512,                                    !- Pixel Counting Resolution
  ,                                       !- Sky Diffuse Modeling Algorithm
  No,                                     !- Output External Shading Calculation Results
  No,                                     !- Disable Self-Shading Within Shading Zone Groups
  No;                                     !- Disable Self-Shading From Shading Zone Groups to Other Zones

OS:HeatBalanceAlgorithm,
  {d106cf47-da59-4fce-8acd-5abb07eeb9c0}, !- Handle
  ConductionTransferFunction,             !- Algorithm
  200;                                    !- Surface Temperature Upper Limit {C}

OS:RunPeriod,
  {d6bd8b25-e94d-4c36-8a25-e44671aa9b75}, !- Handle
  Run Period 1,                           !- Name
  1,                                      !- Begin Month
  1,                                      !- Begin Day of Month
  12,                                     !- End Month
  31,                                     !- End Day of Month
  ,                                       !- Use Weather File Holidays and Special Days
  ,                                       !- Use Weather File Daylight Saving Period
  ,                                       !- Apply Weekend Holiday Rule
  ,                                       !- Use Weather File Rain Indicators
  ,                                       !- Use Weather File Snow Indicators
  ;                                       !- Number of Times Runperiod to be Repeated

OS:LifeCycleCost:Parameters,
  {0f25f4f1-84a1-4442-9bba-5d15bd9d0eb5}, !- Handle
  FEMP,                                   !- Analysis Type
  ,                                       !- Discounting Convention
  ,                                       !- Inflation Approach
  ,                                       !- Real Discount Rate
  ,                                       !- Nominal Discount Rate
  ,                                       !- Inflation
  ,                                       !- Base Date Month
  ,                                       !- Base Date Year
  ,                                       !- Service Date Month
  ,                                       !- Service Date Year
  ,                                       !- Length of Study Period in Years
  ,                                       !- Tax Rate
  ,                                       !- Depreciation Method
  Yes;                                    !- Use NIST Fuel Escalation Rates

OS:WeatherFile,
  {0d62f27b-dcbe-436b-8e32-0e0268353f64}, !- Handle
  Ottawa Intl AP,                         !- City
  ON,                                     !- State Province Region
  CAN,                                    !- Country
  CWEC2020,                               !- Data Source
  716280,                                 !- WMO Number
  45.32,                                  !- Latitude {deg}
  -75.67,                                 !- Longitude {deg}
  -5,                                     !- Time Zone {hr}
  114.9,                                  !- Elevation {m}
  CAN_ON_Ottawa.Intl.AP.716280_CWEC2020.epw, !- Url
  0AF4A6B8,                               !- Checksum
  ,                                       !- Start Date Actual Year
  Sunday;                                 !- Start Day of Week

OS:Rendering:Color,
  {b522754b-82c2-453e-93a4-7e5b3e348f53}, !- Handle
  Rendering Color 1,                      !- Name
  127,                                    !- Rendering Red Value
  212,                                    !- Rendering Green Value
  255;                                    !- Rendering Blue Value

OS:ScheduleTypeLimits,
  {590a8a51-f15e-40f1-8cca-a3bbcdd8f668}, !- Handle
  Dimensionless,                          !- Name
  ,                                       !- Lower Limit Value
  ,                                       !- Upper Limit Value
  Continuous;                             !- Numeric Type

OS:ScheduleTypeLimits,
  {7a015076-eafb-4ef5-bbe7-d40ee3f564c4}, !- Handle
  Dimensionless 1,                        !- Name
  -1,                                     !- Lower Limit Value
  1,                                      !- Upper Limit Value
  Continuous;                             !- Numeric Type

OS:ScheduleTypeLimits,
  {fab5fd45-af29-40ed-be00-2b53fa9ed838}, !- Handle
  Integer,                                !- Name
  0,                                      !- Lower Limit Value
  ,                                       !- Upper Limit Value
  Discrete;                               !- Numeric Type

OS:ScheduleTypeLimits,
  {f8720794-ade1-400a-8cbe-a9d4afc24516}, !- Handle
  Dimensionless 2,                        !- Name
  0,                                      !- Lower Limit Value
  ,                                       !- Upper Limit Value
  Continuous;                             !- Numeric Type

OS:ScheduleTypeLimits,
  {38353cf3-a457-4b09-83fb-0f683fc828fc}, !- Handle
  Fractional,                             !- Name
  0,                                      !- Lower Limit Value
  1,                                      !- Upper Limit Value
  Continuous;                             !- Numeric Type

OS:ScheduleTypeLimits,
  {e4840a3e-1d66-4a9a-8f31-3c30b4ecc915}, !- Handle
  Integer 1,                              !- Name
  0,                                      !- Lower Limit Value
  4,                                      !- Upper Limit Value
  Discrete;                               !- Numeric Type

OS:ScheduleTypeLimits,
  {28a44d43-c42e-4c13-8de6-3d5abfc70f3f}, !- Handle
  Dimensionless 3,                        !- Name
  0.1,                                    !- Lower Limit Value
  1000,                                   !- Upper Limit Value
  Continuous;                             !- Numeric Type

OS:ScheduleTypeLimits,
  {fc8bcc45-79c0-4c2d-9db7-b4aa2c1342a9}, !- Handle
  ActivityLevel,                          !- Name
  0,                                      !- Lower Limit Value
  ,                                       !- Upper Limit Value
  Continuous,                             !- Numeric Type
  ActivityLevel;                          !- Unit Type

OS:ScheduleTypeLimits,
  {eea3f580-962f-42a4-8b02-570c6784d9ca}, !- Handle
  OnOff,                                  !- Name
  0,                                      !- Lower Limit Value
  1,                                      !- Upper Limit Value
  Discrete,                               !- Numeric Type
  Availability;                           !- Unit Type

OS:ScheduleTypeLimits,
  {07303bb4-e59e-44b4-97d2-4bff274aba32}, !- Handle
  Capacity,                               !- Name
  0,                                      !- Lower Limit Value
  ,                                       !- Upper Limit Value
  Continuous,                             !- Numeric Type
  Capacity;                               !- Unit Type

OS:ScheduleTypeLimits,
  {c8919e27-1383-4db8-918a-d9b0e45558d4}, !- Handle
  ClothingInsulation,                     !- Name
  0,                                      !- Lower Limit Value
  ,                                       !- Upper Limit Value
  Continuous,                             !- Numeric Type
  ClothingInsulation;                     !- Unit Type

OS:ScheduleTypeLimits,
  {5977da49-8a23-4391-a955-a00421bef4f3}, !- Handle
  ControlMode,                            !- Name
  0,                                      !- Lower Limit Value
  1,                                      !- Upper Limit Value
  Discrete,                               !- Numeric Type
  ControlMode;                            !- Unit Type

OS:ScheduleTypeLimits,
  {eb2b8dfd-d5ed-47dc-8a02-4a3b26de4e90}, !- Handle
  DeltaTemperature,                       !- Name
  ,                                       !- Lower Limit Value
  ,                                       !- Upper Limit Value
  Continuous,                             !- Numeric Type
  DeltaTemperature;                       !- Unit Type

OS:ScheduleTypeLimits,
  {66d53f1e-8963-4d8c-a98d-2c769216025a}, !- Handle
  Dimensionless 4,                        !- Name
  0,                                      !- Lower Limit Value
  1,                                      !- Upper Limit Value
  Continuous,                             !- Numeric Type
  Dimensionless;                          !- Unit Type

OS:ScheduleTypeLimits,
  {af509928-4237-495b-8612-c9f4c545e8e5}, !- Handle
  LinearPowerDensity,                     !- Name
  0,                                      !- Lower Limit Value
  ,                                       !- Upper Limit Value
  Continuous,                             !- Numeric Type
  LinearPowerDensity;                     !- Unit Type

OS:ScheduleTypeLimits,
  {61067a8c-29f2-4629-886a-2fa550048934}, !- Handle
  MassFlowRate,                           !- Name
  ,                                       !- Lower Limit Value
  ,                                       !- Upper Limit Value
  Continuous,                             !- Numeric Type
  MassFlowRate;                           !- Unit Type

OS:ScheduleTypeLimits,
  {e381fe40-157d-4751-ac87-d14caff733a8}, !- Handle
  Percent,                                !- Name
  0,                                      !- Lower Limit Value
  100,                                    !- Upper Limit Value
  Continuous,                             !- Numeric Type
  Percent;                                !- Unit Type

OS:ScheduleTypeLimits,
  {b5a6b9b5-625e-47e5-a478-887296bda68b}, !- Handle
  Pressure,                               !- Name
  ,                                       !- Lower Limit Value
  ,                                       !- Upper Limit Value
  Continuous,                             !- Numeric Type
  Pressure;                               !- Unit Type

OS:ScheduleTypeLimits,
  {976933b3-5b56-4802-a1a2-6508671967d1}, !- Handle
  RotationsPerMinute,                     !- Name
  ,                                       !- Lower Limit Value
  ,                                       !- Upper Limit Value
  Continuous,                             !- Numeric Type
  RotationsPerMinute;                     !- Unit Type

OS:ScheduleTypeLimits,
  {95f58c11-05be-4d27-a32f-10d9363f9365}, !- Handle
  Temperature,                            !- Name
  ,                                       !- Lower Limit Value
  ,                                       !- Upper Limit Value
  Continuous,                             !- Numeric Type
  Temperature;                            !- Unit Type

OS:ScheduleTypeLimits,
  {fe823172-b370-4807-84ac-2bbabbfcbc6c}, !- Handle
  Temperature 1,                          !- Name
  ,                                       !- Lower Limit Value
  0,                                      !- Upper Limit Value
  Continuous,                             !- Numeric Type
  Temperature;                            !- Unit Type

OS:ScheduleTypeLimits,
  {f3062b11-b8a7-415d-b2b5-ac778776780a}, !- Handle
  Temperature 2,                          !- Name
  0,                                      !- Lower Limit Value
  ,                                       !- Upper Limit Value
  Continuous,                             !- Numeric Type
  Temperature;                            !- Unit Type

OS:ScheduleTypeLimits,
  {d9e73b20-767a-46a3-b346-2d4920328c16}, !- Handle
  Temperature 3,                          !- Name
  0,                                      !- Lower Limit Value
  100,                                    !- Upper Limit Value
  Continuous,                             !- Numeric Type
  Temperature;                            !- Unit Type

OS:ScheduleTypeLimits,
  {caff5289-12b7-44b6-a27e-a8a41b29a02b}, !- Handle
  Velocity,                               !- Name
  0,                                      !- Lower Limit Value
  ,                                       !- Upper Limit Value
  Continuous,                             !- Numeric Type
  Velocity;                               !- Unit Type

OS:ScheduleTypeLimits,
  {b897c598-f79e-490a-95a5-557de88726a6}, !- Handle
  VolumetricFlowRate,                     !- Name
  0,                                      !- Lower Limit Value
  ,                                       !- Upper Limit Value
  Continuous,                             !- Numeric Type
  VolumetricFlowRate;                     !- Unit Type

OS:Schedule:Ruleset,
  {1938b936-2d81-496a-b3bb-525ba13539b3}, !- Handle
  Cooling Setpoint,                       !- Name
  {95f58c11-05be-4d27-a32f-10d9363f9365}, !- Schedule Type Limits Name
  {44c36b94-402c-4a0d-9a68-0eb06c93f6b1}, !- Default Day Schedule Name
  {1af97451-ddbc-478e-ba95-4b7b45d69432}; !- Summer Design Day Schedule Name

OS:Schedule:Day,
  {44c36b94-402c-4a0d-9a68-0eb06c93f6b1}, !- Handle
  Schedule Day 1,                         !- Name
  {95f58c11-05be-4d27-a32f-10d9363f9365}, !- Schedule Type Limits Name
  ,                                       !- Interpolate to Timestep
  24,                                     !- Hour 1
  0,                                      !- Minute 1
  25;                                     !- Value Until Time 1

OS:Schedule:Ruleset,
  {572e8eee-0fef-4198-b450-2bce203383e4}, !- Handle
  Heating Setpoint,                       !- Name
  {95f58c11-05be-4d27-a32f-10d9363f9365}, !- Schedule Type Limits Name
  {1ad1c692-3ecb-470c-9b6e-f72fd1e83ad7}; !- Default Day Schedule Name

OS:Schedule:Day,
  {1ad1c692-3ecb-470c-9b6e-f72fd1e83ad7}, !- Handle
  Schedule Day 2,                         !- Name
  {95f58c11-05be-4d27-a32f-10d9363f9365}, !- Schedule Type Limits Name
  ,                                       !- Interpolate to Timestep
  24,                                     !- Hour 1
  0,                                      !- Minute 1
  20;                                     !- Value Until Time 1

OS:Schedule:Ruleset,
  {354db1f6-b189-44a6-a615-84a3f3e98a8a}, !- Handle
  Internal gains,                         !- Name
  {38353cf3-a457-4b09-83fb-0f683fc828fc}, !- Schedule Type Limits Name
  {1ca3796f-8318-41ad-9456-566ac16e61b6}; !- Default Day Schedule Name

OS:Schedule:Day,
  {1ca3796f-8318-41ad-9456-566ac16e61b6}, !- Handle
  Schedule Day 3,                         !- Name
  {38353cf3-a457-4b09-83fb-0f683fc828fc}, !- Schedule Type Limits Name
  ,                                       !- Interpolate to Timestep
  24,                                     !- Hour 1
  0,                                      !- Minute 1
  0.1;                                    !- Value Until Time 1

OS:Schedule:Ruleset,
  {9a241dbf-bb80-4364-ba85-fd75892ee16f}, !- Handle
  INfiltartion,                           !- Name
  {eea3f580-962f-42a4-8b02-570c6784d9ca}, !- Schedule Type Limits Name
  {771e228a-193a-4a21-bade-b0fe2dc28e99}; !- Default Day Schedule Name

OS:Schedule:Day,
  {771e228a-193a-4a21-bade-b0fe2dc28e99}, !- Handle
  Schedule Day 4,                         !- Name
  {eea3f580-962f-42a4-8b02-570c6784d9ca}, !- Schedule Type Limits Name
  ,                                       !- Interpolate to Timestep
  24,                                     !- Hour 1
  0,                                      !- Minute 1
  1;                                      !- Value Until Time 1

OS:DefaultScheduleSet,
  {412c1bd0-5753-48ab-88e4-fea6710a8053}, !- Handle
  SChed Colin,                            !- Name
  {0224a1d1-4424-477e-8bd0-657c655766c0}, !- Hours of Operation Schedule Name
  {b61fb5f5-4652-4fcd-b951-b39314d2bd8c}, !- Number of People Schedule Name
  {0a618310-5282-4771-98e4-089eddf14bdc}, !- People Activity Level Schedule Name
  {514a6a99-db7a-4ec5-aa52-f7f58d396d55}, !- Lighting Schedule Name
  {354db1f6-b189-44a6-a615-84a3f3e98a8a}, !- Electric Equipment Schedule Name
  ,                                       !- Gas Equipment Schedule Name
  ,                                       !- Hot Water Equipment Schedule Name
  {9a241dbf-bb80-4364-ba85-fd75892ee16f}, !- Infiltration Schedule Name
  ,                                       !- Steam Equipment Schedule Name
  ;                                       !- Other Equipment Schedule Name

OS:Material,
  {32950aaa-d6f0-4359-acfe-b5906f84eb24}, !- Handle
  GYp brd,                                !- Name
  Smooth,                                 !- Roughness
  0.013,                                  !- Thickness {m}
  0.16,                                   !- Conductivity {W/m-K}
  640,                                    !- Density {kg/m3}
  1150;                                   !- Specific Heat {J/kg-K}

OS:StandardsInformation:Material,
  {92f42602-fe32-442d-a04d-e074094c1436}, !- Handle
  {32950aaa-d6f0-4359-acfe-b5906f84eb24}; !- Material Name

OS:Material,
  {c61609f9-980c-43cb-a62f-98c436489d69}, !- Handle
  COnc block,                             !- Name
  Smooth,                                 !- Roughness
  0.15,                                   !- Thickness {m}
  1.9,                                    !- Conductivity {W/m-K}
  2300,                                   !- Density {kg/m3}
  840;                                    !- Specific Heat {J/kg-K}

OS:StandardsInformation:Material,
  {094a6d42-4758-4561-b938-37ce401a8d70}, !- Handle
  {c61609f9-980c-43cb-a62f-98c436489d69}; !- Material Name

OS:Material,
  {ec8a3e9c-4497-42ba-9c7b-14cf34fe8666}, !- Handle
  Iso 1,                                  !- Name
  Smooth,                                 !- Roughness
  0.09,                                   !- Thickness {m}
  0.022,                                  !- Conductivity {W/m-K}
  30,                                     !- Density {kg/m3}
  1500;                                   !- Specific Heat {J/kg-K}

OS:StandardsInformation:Material,
  {85edc180-6ec2-4891-ae17-23a82e9adef0}, !- Handle
  {ec8a3e9c-4497-42ba-9c7b-14cf34fe8666}; !- Material Name

OS:Material,
  {21f21a66-6145-459b-a0c1-57d04b6dc803}, !- Handle
  Brick,                                  !- Name
  Smooth,                                 !- Roughness
  0.1,                                    !- Thickness {m}
  0.84,                                   !- Conductivity {W/m-K}
  1700,                                   !- Density {kg/m3}
  800,                                    !- Specific Heat {J/kg-K}
  0.89,                                   !- Thermal Absorptance
  0.75;                                   !- Solar Absorptance

OS:StandardsInformation:Material,
  {71fce734-04fa-4890-8c55-4734ee5fcc9d}, !- Handle
  {21f21a66-6145-459b-a0c1-57d04b6dc803}; !- Material Name

OS:Material,
  {f94d4f17-2a0e-4195-9d2a-0622009c681a}, !- Handle
  Cast Conc,                              !- Name
  Smooth,                                 !- Roughness
  0.1,                                    !- Thickness {m}
  1.9,                                    !- Conductivity {W/m-K}
  2300,                                   !- Density {kg/m3}
  840,                                    !- Specific Heat {J/kg-K}
  0.85,                                   !- Thermal Absorptance
  0.7;                                    !- Solar Absorptance

OS:StandardsInformation:Material,
  {88246a44-0f98-4bd5-9301-33a3d412a40f}, !- Handle
  {f94d4f17-2a0e-4195-9d2a-0622009c681a}; !- Material Name

OS:Material,
  {910bd7e3-9075-43b0-bc11-f685cef1f1b4}, !- Handle
  XPS,                                    !- Name
  Smooth,                                 !- Roughness
  0.075,                                  !- Thickness {m}
  0.029,                                  !- Conductivity {W/m-K}
  35,                                     !- Density {kg/m3}
  1500,                                   !- Specific Heat {J/kg-K}
  ,                                       !- Thermal Absorptance
  0.4;                                    !- Solar Absorptance

OS:StandardsInformation:Material,
  {e6d47865-d12c-48bb-9a7f-69cb0b41ff0a}, !- Handle
  {910bd7e3-9075-43b0-bc11-f685cef1f1b4}; !- Material Name

OS:Material,
  {1f23e5e2-4c52-4fba-b44f-a7a7e528eded}, !- Handle
  Unfin Drywall gym brd,                  !- Name
  Smooth,                                 !- Roughness
  0.0127,                                 !- Thickness {m}
  0.16,                                   !- Conductivity {W/m-K}
  640,                                    !- Density {kg/m3}
  1150;                                   !- Specific Heat {J/kg-K}

OS:StandardsInformation:Material,
  {d6e0296f-6c95-45d0-b4f6-8d042414b178}, !- Handle
  {1f23e5e2-4c52-4fba-b44f-a7a7e528eded}; !- Material Name

OS:Material,
  {5979262c-7fda-4ad0-ae5c-795db6192a10}, !- Handle
  Fiber glass,                            !- Name
  Smooth,                                 !- Roughness
  0.49,                                   !- Thickness {m}
  0.055,                                  !- Conductivity {W/m-K}
  12,                                     !- Density {kg/m3}
  800;                                    !- Specific Heat {J/kg-K}

OS:StandardsInformation:Material,
  {9a267d66-2e28-413b-baa4-81010ca8939b}, !- Handle
  {5979262c-7fda-4ad0-ae5c-795db6192a10}; !- Material Name

OS:Material,
  {523645dd-a99d-4ac1-9348-fa620d7623a7}, !- Handle
  Floor baord,                            !- Name
  Smooth,                                 !- Roughness
  0.038,                                  !- Thickness {m}
  1.59,                                   !- Conductivity {W/m-K}
  1920,                                   !- Density {kg/m3}
  1260;                                   !- Specific Heat {J/kg-K}

OS:StandardsInformation:Material,
  {4d33ed40-9b38-4852-a7f1-deb2812cdad0}, !- Handle
  {523645dd-a99d-4ac1-9348-fa620d7623a7}; !- Material Name

OS:Material:AirGap,
  {93e2fc76-7292-436f-bda8-a7e0d01dd708}, !- Handle
  Airgap,                                 !- Name
  0.18;                                   !- Thermal Resistance {m2-K/W}

OS:StandardsInformation:Material,
  {ca81e48b-f935-40a6-b927-b10fb98d5a63}, !- Handle
  {93e2fc76-7292-436f-bda8-a7e0d01dd708}; !- Material Name

OS:WindowMaterial:Glazing,
  {054d06c4-264e-4123-ab91-ff7e13f9b1e7}, !- Handle
  Glass 1-2,                              !- Name
  SpectralAverage,                        !- Optical Data Type
  ,                                       !- Window Glass Spectral Data Set Name
  0.003,                                  !- Thickness {m}
  0.876,                                  !- Solar Transmittance at Normal Incidence
  0.078,                                  !- Front Side Solar Reflectance at Normal Incidence
  0.078,                                  !- Back Side Solar Reflectance at Normal Incidence
  ,                                       !- Visible Transmittance at Normal Incidence
  ,                                       !- Front Side Visible Reflectance at Normal Incidence
  ,                                       !- Back Side Visible Reflectance at Normal Incidence
  ,                                       !- Infrared Transmittance at Normal Incidence
  ,                                       !- Front Side Infrared Hemispherical Emissivity
  ,                                       !- Back Side Infrared Hemispherical Emissivity
  1;                                      !- Conductivity {W/m-K}

OS:StandardsInformation:Material,
  {1a85467f-d094-4a56-96a7-ad023ab9b71e}, !- Handle
  {054d06c4-264e-4123-ab91-ff7e13f9b1e7}; !- Material Name

OS:WindowMaterial:Glazing,
  {cea7d781-7a53-49a0-90f4-9d306ac18ce5}, !- Handle
  Glass 3-4,                              !- Name
  SpectralAverage,                        !- Optical Data Type
  ,                                       !- Window Glass Spectral Data Set Name
  0.003,                                  !- Thickness {m}
  0.708,                                  !- Solar Transmittance at Normal Incidence
  0.179,                                  !- Front Side Solar Reflectance at Normal Incidence
  0.155,                                  !- Back Side Solar Reflectance at Normal Incidence
  ,                                       !- Visible Transmittance at Normal Incidence
  ,                                       !- Front Side Visible Reflectance at Normal Incidence
  ,                                       !- Back Side Visible Reflectance at Normal Incidence
  ,                                       !- Infrared Transmittance at Normal Incidence
  0.095,                                  !- Front Side Infrared Hemispherical Emissivity
  ,                                       !- Back Side Infrared Hemispherical Emissivity
  1;                                      !- Conductivity {W/m-K}

OS:StandardsInformation:Material,
  {3688b839-3af2-4309-a719-c88c6e0a6a49}, !- Handle
  {cea7d781-7a53-49a0-90f4-9d306ac18ce5}; !- Material Name

OS:WindowMaterial:Glazing,
  {93d4e334-424d-418c-8076-94f3aca91a48}, !- Handle
  Glass 5-6,                              !- Name
  SpectralAverage,                        !- Optical Data Type
  ,                                       !- Window Glass Spectral Data Set Name
  0.003,                                  !- Thickness {m}
  0.708,                                  !- Solar Transmittance at Normal Incidence
  0.179,                                  !- Front Side Solar Reflectance at Normal Incidence
  0.155,                                  !- Back Side Solar Reflectance at Normal Incidence
  ,                                       !- Visible Transmittance at Normal Incidence
  ,                                       !- Front Side Visible Reflectance at Normal Incidence
  ,                                       !- Back Side Visible Reflectance at Normal Incidence
  ,                                       !- Infrared Transmittance at Normal Incidence
  0.095,                                  !- Front Side Infrared Hemispherical Emissivity
  ,                                       !- Back Side Infrared Hemispherical Emissivity
  1;                                      !- Conductivity {W/m-K}

OS:StandardsInformation:Material,
  {e6ca31ec-3396-435a-af74-e84ecf116468}, !- Handle
  {93d4e334-424d-418c-8076-94f3aca91a48}; !- Material Name

OS:WindowMaterial:Gas,
  {554fb385-ccd7-4a39-882f-41885fcded0b}, !- Handle
  Argon,                                  !- Name
  Argon,                                  !- Gas Type
  0.013;                                  !- Thickness {m}

OS:StandardsInformation:Material,
  {99dea0e0-e2ea-411a-a0eb-4c8a552db863}, !- Handle